    101 'GENROU' 1     8.0000      0.30000E-01  0.40000      0.50000E-01
          6.1750      0.50000E-01   1.8000       1.7000      0.30000
         0.55000      0.25000      0.20000      0.00000      0.00000      /
    101 'SEXS' 1    0.4    5.0      20.0     1.0     -999.0       999.0 /
    101 'TGOV1'  1   0.05  0.2  999.0  -999.0  0.3  0.8  0 / 